  
       XFOIL         Version 6.99
  
 Calculated polar for: NACA 2412                                       
  
 1 1 Reynolds number fixed          Mach number fixed         
  
 xtrf =   1.000 (top)        1.000 (bottom)  
 Mach =   0.000     Re =     0.000 e 6     Ncrit =   9.000  9.000
  
   alpha    CL        CD       CDp       CM     Top_Xtr  Bot_Xtr  Top_Itr  Bot_Itr
  ------ -------- --------- --------- -------- -------- -------- -------- --------
   0.000   0.2554   0.00000  -0.00107  -0.0557   0.0000   0.0000   0.0000   0.0000
   0.500   0.3158   0.00000  -0.00107  -0.0565   0.0000   0.0000   0.0000   0.0000
   1.000   0.3761   0.00000  -0.00107  -0.0572   0.0000   0.0000   0.0000   0.0000
   1.500   0.4365   0.00000  -0.00107  -0.0579   0.0000   0.0000   0.0000   0.0000
   2.000   0.4968   0.00000  -0.00108  -0.0587   0.0000   0.0000   0.0000   0.0000
   2.500   0.5570   0.00000  -0.00108  -0.0594   0.0000   0.0000   0.0000   0.0000
   3.000   0.6173   0.00000  -0.00109  -0.0601   0.0000   0.0000   0.0000   0.0000
   3.500   0.6774   0.00000  -0.00109  -0.0609   0.0000   0.0000   0.0000   0.0000
   4.000   0.7376   0.00000  -0.00110  -0.0616   0.0000   0.0000   0.0000   0.0000
   4.500   0.7976   0.00000  -0.00110  -0.0624   0.0000   0.0000   0.0000   0.0000
   5.000   0.8577   0.00000  -0.00111  -0.0631   0.0000   0.0000   0.0000   0.0000
   5.500   0.9176   0.00000  -0.00112  -0.0639   0.0000   0.0000   0.0000   0.0000
   6.000   0.9775   0.00000  -0.00113  -0.0646   0.0000   0.0000   0.0000   0.0000
   6.500   1.0373   0.00000  -0.00114  -0.0654   0.0000   0.0000   0.0000   0.0000
   7.000   1.0970   0.00000  -0.00115  -0.0661   0.0000   0.0000   0.0000   0.0000
   7.500   1.1566   0.00000  -0.00116  -0.0669   0.0000   0.0000   0.0000   0.0000
   8.000   1.2162   0.00000  -0.00117  -0.0677   0.0000   0.0000   0.0000   0.0000
   8.500   1.2756   0.00000  -0.00118  -0.0684   0.0000   0.0000   0.0000   0.0000
   9.000   1.3350   0.00000  -0.00119  -0.0692   0.0000   0.0000   0.0000   0.0000
   9.500   1.3943   0.00000  -0.00121  -0.0699   0.0000   0.0000   0.0000   0.0000
  10.000   1.4534   0.00000  -0.00122  -0.0707   0.0000   0.0000   0.0000   0.0000
